test/data/case14.egret.json
{
  "elements": {
    "branch": {
      "1": {
        "angle_diff_max": 360.0,
        "angle_diff_min": -360.0,
        "branch_type": "line",
        "charging_susceptance": 0.0528,
        "from_bus": "1",
        "in_service": true,
        "reactance": 0.05917,
        "resistance": 0.01938,
        "to_bus": "2"
      },
      "10": {
        "angle_diff_max": 360.0,
        "angle_diff_min": -360.0,
        "branch_type": "transformer",
        "charging_susceptance": 0.0,
        "from_bus": "5",
        "in_service": true,
        "reactance": 0.25202,
        "resistance": 0.0,
        "to_bus": "6",
        "transformer_phase_shift": 0.0,
        "transformer_tap_ratio": 0.932
      },
      "11": {
        "angle_diff_max": 360.0,
        "angle_diff_min": -360.0,
        "branch_type": "line",
        "charging_susceptance": 0.0,
        "from_bus": "6",
        "in_service": true,
        "reactance": 0.1989,
        "resistance": 0.09498,
        "to_bus": "11"
      },
      "12": {
        "angle_diff_max": 360.0,
        "angle_diff_min": -360.0,
        "branch_type": "line",
        "charging_susceptance": 0.0,
        "from_bus": "6",
        "in_service": true,
        "reactance": 0.25581,
        "resistance": 0.12291,
        "to_bus": "12"
      },
      "13": {
        "angle_diff_max": 360.0,
        "angle_diff_min": -360.0,
        "branch_type": "line",
        "charging_susceptance": 0.0,
        "from_bus": "6",
        "in_service": true,
        "reactance": 0.13027,
        "resistance": 0.06615,
        "to_bus": "13"
      },
      "14": {
        "angle_diff_max": 360.0,
        "angle_diff_min": -360.0,
        "branch_type": "line",
        "charging_susceptance": 0.0,
        "from_bus": "7",
        "in_service": true,
        "reactance": 0.17615,
        "resistance": 0.0,
        "to_bus": "8"
      },
      "15": {
        "angle_diff_max": 360.0,
        "angle_diff_min": -360.0,
        "branch_type": "line",
        "charging_susceptance": 0.0,
        "from_bus": "7",
        "in_service": true,
        "reactance": 0.11001,
        "resistance": 0.0,
        "to_bus": "9"
      },
      "16": {
        "angle_diff_max": 360.0,
        "angle_diff_min": -360.0,
        "branch_type": "line",
        "charging_susceptance": 0.0,
        "from_bus": "9",
        "in_service": true,
        "reactance": 0.0845,
        "resistance": 0.03181,
        "to_bus": "10"
      },
      "17": {
        "angle_diff_max": 360.0,
        "angle_diff_min": -360.0,
        "branch_type": "line",
        "charging_susceptance": 0.0,
        "from_bus": "9",
        "in_service": true,
        "reactance": 0.27038,
        "resistance": 0.12711,
        "to_bus": "14"
      },
      "18": {
        "angle_diff_max": 360.0,
        "angle_diff_min": -360.0,
        "branch_type": "line",
        "charging_susceptance": 0.0,
        "from_bus": "10",
        "in_service": true,
        "reactance": 0.19207,
        "resistance": 0.08205,
        "to_bus": "11"
      },
      "19": {
        "angle_diff_max": 360.0,
        "angle_diff_min": -360.0,
        "branch_type": "line",
        "charging_susceptance": 0.0,
        "from_bus": "12",
        "in_service": true,
        "reactance": 0.19988,
        "resistance": 0.22092,
        "to_bus": "13"
      },
      "2": {
        "angle_diff_max": 360.0,
        "angle_diff_min": -360.0,
        "branch_type": "line",
        "charging_susceptance": 0.0492,
        "from_bus": "1",
        "in_service": true,
        "reactance": 0.22304,
        "resistance": 0.05403,
        "to_bus": "5"
      },
      "20": {
        "angle_diff_max": 360.0,
        "angle_diff_min": -360.0,
        "branch_type": "line",
        "charging_susceptance": 0.0,
        "from_bus": "13",
        "in_service": true,
        "reactance": 0.34802,
        "resistance": 0.17093,
        "to_bus": "14"
      },
      "3": {
        "angle_diff_max": 360.0,
        "angle_diff_min": -360.0,
        "branch_type": "line",
        "charging_susceptance": 0.0438,
        "from_bus": "2",
        "in_service": true,
        "reactance": 0.19797,
        "resistance": 0.04699,
        "to_bus": "3"
      },
      "4": {
        "angle_diff_max": 360.0,
        "angle_diff_min": -360.0,
        "branch_type": "line",
        "charging_susceptance": 0.034,
        "from_bus": "2",
        "in_service": true,
        "reactance": 0.17632,
        "resistance": 0.05811,
        "to_bus": "4"
      },
      "5": {
        "angle_diff_max": 360.0,
        "angle_diff_min": -360.0,
        "branch_type": "line",
        "charging_susceptance": 0.0346,
        "from_bus": "2",
        "in_service": true,
        "reactance": 0.17388,
        "resistance": 0.05695,
        "to_bus": "5"
      },
      "6": {
        "angle_diff_max": 360.0,
        "angle_diff_min": -360.0,
        "branch_type": "line",
        "charging_susceptance": 0.0128,
        "from_bus": "3",
        "in_service": true,
        "reactance": 0.17103,
        "resistance": 0.06701,
        "to_bus": "4"
      },
      "7": {
        "angle_diff_max": 360.0,
        "angle_diff_min": -360.0,
        "branch_type": "line",
        "charging_susceptance": 0.0,
        "from_bus": "4",
        "in_service": true,
        "reactance": 0.04211,
        "resistance": 0.01335,
        "to_bus": "5"
      },
      "8": {
        "angle_diff_max": 360.0,
        "angle_diff_min": -360.0,
        "branch_type": "transformer",
        "charging_susceptance": 0.0,
        "from_bus": "4",
        "in_service": true,
        "reactance": 0.20912,
        "resistance": 0.0,
        "to_bus": "7",
        "transformer_phase_shift": 0.0,
        "transformer_tap_ratio": 0.978
      },
      "9": {
        "angle_diff_max": 360.0,
        "angle_diff_min": -360.0,
        "branch_type": "transformer",
        "charging_susceptance": 0.0,
        "from_bus": "4",
        "in_service": true,
        "reactance": 0.55618,
        "resistance": 0.0,
        "to_bus": "9",
        "transformer_phase_shift": 0.0,
        "transformer_tap_ratio": 0.969
      }
    },
    "bus": {
      "1": {
        "area": "1",
        "base_kv": 0.0,
        "matpower_bustype": "ref",
        "name": "Bus 1     HV",
        "v_max": 1.06,
        "v_min": 0.94,
        "va": 0.0,
        "vm": 1.06,
        "zone": "1"
      },
      "10": {
        "area": "1",
        "base_kv": 0.0,
        "matpower_bustype": "PQ",
        "name": "Bus 10    LV",
        "v_max": 1.06,
        "v_min": 0.94,
        "va": -15.1,
        "vm": 1.051,
        "zone": "1"
      },
      "11": {
        "area": "1",
        "base_kv": 0.0,
        "matpower_bustype": "PQ",
        "name": "Bus 11    LV",
        "v_max": 1.06,
        "v_min": 0.94,
        "va": -14.79,
        "vm": 1.057,
        "zone": "1"
      },
      "12": {
        "area": "1",
        "base_kv": 0.0,
        "matpower_bustype": "PQ",
        "name": "Bus 12    LV",
        "v_max": 1.06,
        "v_min": 0.94,
        "va": -15.07,
        "vm": 1.055,
        "zone": "1"
      },
      "13": {
        "area": "1",
        "base_kv": 0.0,
        "matpower_bustype": "PQ",
        "name": "Bus 13    LV",
        "v_max": 1.06,
        "v_min": 0.94,
        "va": -15.16,
        "vm": 1.05,
        "zone": "1"
      },
      "14": {
        "area": "1",
        "base_kv": 0.0,
        "matpower_bustype": "PQ",
        "name": "Bus 14    LV",
        "v_max": 1.06,
        "v_min": 0.94,
        "va": -16.04,
        "vm": 1.036,
        "zone": "1"
      },
      "2": {
        "area": "1",
        "base_kv": 0.0,
        "matpower_bustype": "PV",
        "name": "Bus 2     HV",
        "v_max": 1.06,
        "v_min": 0.94,
        "va": -4.98,
        "vm": 1.045,
        "zone": "1"
      },
      "3": {
        "area": "1",
        "base_kv": 0.0,
        "matpower_bustype": "PV",
        "name": "Bus 3     HV",
        "v_max": 1.06,
        "v_min": 0.94,
        "va": -12.72,
        "vm": 1.01,
        "zone": "1"
      },
      "4": {
        "area": "1",
        "base_kv": 0.0,
        "matpower_bustype": "PQ",
        "name": "Bus 4     HV",
        "v_max": 1.06,
        "v_min": 0.94,
        "va": -10.33,
        "vm": 1.019,
        "zone": "1"
      },
      "5": {
        "area": "1",
        "base_kv": 0.0,
        "matpower_bustype": "PQ",
        "name": "Bus 5     HV",
        "v_max": 1.06,
        "v_min": 0.94,
        "va": -8.78,
        "vm": 1.02,
        "zone": "1"
      },
      "6": {
        "area": "1",
        "base_kv": 0.0,
        "matpower_bustype": "PV",
        "name": "Bus 6     LV",
        "v_max": 1.06,
        "v_min": 0.94,
        "va": -14.22,
        "vm": 1.07,
        "zone": "1"
      },
      "7": {
        "area": "1",
        "base_kv": 0.0,
        "matpower_bustype": "PQ",
        "name": "Bus 7     ZV",
        "v_max": 1.06,
        "v_min": 0.94,
        "va": -13.37,
        "vm": 1.062,
        "zone": "1"
      },
      "8": {
        "area": "1",
        "base_kv": 0.0,
        "matpower_bustype": "PV",
        "name": "Bus 8     TV",
        "v_max": 1.06,
        "v_min": 0.94,
        "va": -13.36,
        "vm": 1.09,
        "zone": "1"
      },
      "9": {
        "area": "1",
        "base_kv": 0.0,
        "matpower_bustype": "PQ",
        "name": "Bus 9     LV",
        "v_max": 1.06,
        "v_min": 0.94,
        "va": -14.94,
        "vm": 1.056,
        "zone": "1"
      }
    },
    "generator": {
      "1": {
        "bus": "1",
        "generator_type": "thermal",
        "in_service": true,
        "mbase": 100.0,
        "p_cost": {
          "cost_curve_type": "polynomial",
          "data_type": "cost_curve",
          "values": {
            "0": 0.0,
            "1": 20.0,
            "2": 0.0430292599
          }
        },
        "p_max": 332.4,
        "p_min": 0.0,
        "pg": 232.4,
        "q_max": 10.0,
        "q_min": 0.0,
        "qg": -16.9,
        "vg": 1.06
      },
      "2": {
        "bus": "2",
        "generator_type": "thermal",
        "in_service": true,
        "mbase": 100.0,
        "p_cost": {
          "cost_curve_type": "polynomial",
          "data_type": "cost_curve",
          "values": {
            "0": 0.0,
            "1": 20.0,
            "2": 0.25
          }
        },
        "p_max": 140.0,
        "p_min": 0.0,
        "pg": 40.0,
        "q_max": 50.0,
        "q_min": -40.0,
        "qg": 42.4,
        "vg": 1.045
      },
      "3": {
        "bus": "3",
        "generator_type": "thermal",
        "in_service": true,
        "mbase": 100.0,
        "p_cost": {
          "cost_curve_type": "polynomial",
          "data_type": "cost_curve",
          "values": {
            "0": 0.0,
            "1": 40.0,
            "2": 0.01
          }
        },
        "p_max": 100.0,
        "p_min": 0.0,
        "pg": 0.0,
        "q_max": 40.0,
        "q_min": 0.0,
        "qg": 23.4,
        "vg": 1.01
      },
      "4": {
        "bus": "6",
        "generator_type": "thermal",
        "in_service": true,
        "mbase": 100.0,
        "p_cost": {
          "cost_curve_type": "polynomial",
          "data_type": "cost_curve",
          "values": {
            "0": 0.0,
            "1": 40.0,
            "2": 0.01
          }
        },
        "p_max": 100.0,
        "p_min": 0.0,
        "pg": 0.0,
        "q_max": 24.0,
        "q_min": -6.0,
        "qg": 12.2,
        "vg": 1.07
      },
      "5": {
        "bus": "8",
        "generator_type": "thermal",
        "in_service": true,
        "mbase": 100.0,
        "p_cost": {
          "cost_curve_type": "polynomial",
          "data_type": "cost_curve",
          "values": {
            "0": 0.0,
            "1": 40.0,
            "2": 0.01
          }
        },
        "p_max": 100.0,
        "p_min": 0.0,
        "pg": 0.0,
        "q_max": 24.0,
        "q_min": -6.0,
        "qg": 17.4,
        "vg": 1.09
      }
    },
    "load": {
      "load_1": {
        "bus": "2",
        "in_service": true,
        "p_load": 21.7,
        "q_load": 12.7
      },
      "load_10": {
        "bus": "13",
        "in_service": true,
        "p_load": 13.5,
        "q_load": 5.8
      },
      "load_11": {
        "bus": "14",
        "in_service": true,
        "p_load": 14.9,
        "q_load": 5.0
      },
      "load_2": {
        "bus": "3",
        "in_service": true,
        "p_load": 94.2,
        "q_load": 19.0
      },
      "load_3": {
        "bus": "4",
        "in_service": true,
        "p_load": 47.8,
        "q_load": -3.9
      },
      "load_4": {
        "bus": "5",
        "in_service": true,
        "p_load": 7.6,
        "q_load": 1.6
      },
      "load_5": {
        "bus": "6",
        "in_service": true,
        "p_load": 11.2,
        "q_load": 7.5
      },
      "load_6": {
        "bus": "9",
        "in_service": true,
        "p_load": 29.5,
        "q_load": 16.6
      },
      "load_7": {
        "bus": "10",
        "in_service": true,
        "p_load": 9.0,
        "q_load": 5.8
      },
      "load_8": {
        "bus": "11",
        "in_service": true,
        "p_load": 3.5,
        "q_load": 1.8
      },
      "load_9": {
        "bus": "12",
        "in_service": true,
        "p_load": 6.1,
        "q_load": 1.6
      }
    },
    "shunt": {
      "shunt_1": {
        "bs": 19.0,
        "bus": "9",
        "gs": 0.0,
        "shunt_type": "fixed"
      }
    }
  },
  "system": {
    "baseMVA": 100.0,
    "reference_bus": "1",
    "reference_bus_angle": 0.0
  }
}